*Heading
** Job name: Job-1 Model name: Model-1
** Generated by: Abaqus/CAE 6.14-1
*Preprint, echo=NO, model=NO, history=NO, contact=NO
**
** PARTS
**
*Part, name=Total
*Node
      1,           0.,           0.
      2,           1.,           0.
      3,           1.,           1.
      4,           0.,           1.
      5,         0.75,          0.5
      6,  0.100000001,           0.
      7,  0.200000003,           0.
      8,  0.300000012,           0.
      9,  0.400000006,           0.
     10,          0.5,           0.
     11,  0.600000024,           0.
     12,  0.699999988,           0.
     13,  0.800000012,           0.
     14,  0.899999976,           0.
     15,           1.,  0.100000001
     16,           1.,  0.200000003
     17,           1.,  0.300000012
     18,           1.,  0.400000006
     19,           1.,          0.5
     20,           1.,  0.600000024
** ... 84 like lines cut
*Element, type=CPS4R
 1, 51, 87, 68, 89
 2, 66, 18, 19, 65
 3, 81, 65, 64, 63
 4, 53, 29, 30, 76
 5, 80, 91, 54, 73
 6, 97, 91, 80, 92
 7, 73, 36, 37, 55
 8, 72, 38, 39, 78
 9, 48, 61, 60, 49
10, 47, 84, 93, 48
11, 56,  7,  8, 62
12, 55, 83, 46, 73
13, 79, 77, 40, 41
14, 28, 69, 57, 27
15, 26, 70, 58, 25
16, 90, 88, 71, 58
17, 14,  2, 15, 68
18, 12, 51, 59, 11
19, 60, 10, 11, 59
20, 10, 60, 61,  9
** ... 63 like lines cut
*Nset, nset=matrix, generate
  1,  98,   1
*Elset, elset=matrix, generate
  1,  73,   1
*Nset, nset=fiber
   5,  42,  43,  44,  45,  46,  47,  48,  49,  50,  99, 100, 101, 102, 103, 104
*Elset, elset=fiber, generate
 74,  83,   1
** Section: Section-1
*Solid Section, elset=matrix, material=Material-1
,
** Section: Section-2
*Solid Section, elset=fiber, material=Material-2
,
*End Part
**  
**
** ASSEMBLY
**
*Assembly, name=Assembly
**  
*Instance, name=Total-1, part=Total
*End Instance
**  
*Nset, nset=leftNodes, instance=Total-1
  1,  4, 33, 34, 35, 36, 37, 38, 39, 40, 41
*Elset, elset=leftNodes, instance=Total-1
  7,  8, 13, 32, 33, 39, 41, 42, 44, 50
*Elset, elset=_Surf-1_S2, internal, instance=Total-1
  2, 17, 47
*Elset, elset=_Surf-1_S1, internal, instance=Total-1
 23, 25
*Elset, elset=_Surf-1_S4, internal, instance=Total-1
 26, 27, 30, 31, 56
*Surface, type=ELEMENT, name=Surf-1
_Surf-1_S2, S2
_Surf-1_S1, S1
_Surf-1_S4, S4
*End Assembly
** 
** MATERIALS
** 
*Material, name=Material-1
*Elastic
1., 0.3
*Material, name=Material-2
*Elastic
1., 0.3
** 
** BOUNDARY CONDITIONS
** 
** Name: BC-1 Type: Displacement/Rotation
*Boundary
leftNodes, 1, 1
leftNodes, 2, 2
leftNodes, 6, 6
** ----------------------------------------------------------------
** 
** STEP: Step-1
** 
*Step, name=Step-1, nlgeom=NO
*Static
1., 1., 1e-05, 1.
** 
** LOADS
** 
** Name: Load-1   Type: Pressure
*Dsload
Surf-1, P, -10.
** 
** OUTPUT REQUESTS
** 
*Restart, write, frequency=0
** 
** FIELD OUTPUT: F-Output-1
** 
*Output, field, variable=PRESELECT
** 
** HISTORY OUTPUT: H-Output-1
** 
*Output, history, variable=PRESELECT
*End Step
